Version 4
SHEET 1 3508 1168
WIRE 32 -256 -176 -256
WIRE 672 -256 32 -256
WIRE 784 -256 672 -256
WIRE 944 -256 864 -256
WIRE -176 -240 -176 -256
WIRE 672 -224 672 -256
WIRE 160 -208 96 -208
WIRE 224 -208 160 -208
WIRE 336 -208 288 -208
WIRE 480 -208 336 -208
WIRE 560 -208 480 -208
WIRE 96 -192 96 -208
WIRE 560 -192 560 -208
WIRE 1456 -192 1120 -192
WIRE 1552 -192 1456 -192
WIRE 1648 -192 1552 -192
WIRE -176 -144 -176 -160
WIRE 336 -144 336 -208
WIRE 944 -128 944 -256
WIRE 1120 -128 1120 -192
WIRE 1648 -128 1648 -192
WIRE 96 -112 96 -128
WIRE 1456 -112 1456 -192
WIRE 1552 -112 1552 -192
WIRE 560 -96 560 -112
WIRE 32 -80 32 -256
WIRE 160 -80 160 -208
WIRE 672 -80 672 -160
WIRE 480 -32 480 -208
WIRE -64 0 -176 0
WIRE 336 0 336 -80
WIRE 336 0 256 0
WIRE 1456 16 1456 -48
WIRE 1456 16 1376 16
WIRE 1552 16 1552 -48
WIRE 1552 16 1456 16
WIRE 1648 16 1648 -48
WIRE 1648 16 1552 16
WIRE 672 32 672 -16
WIRE 784 32 672 32
WIRE 896 32 784 32
WIRE 944 32 944 -48
WIRE 944 32 896 32
WIRE 1120 32 1120 -48
WIRE 1152 32 1120 32
WIRE 1168 32 1152 32
WIRE 1392 48 1376 48
WIRE 784 64 784 32
WIRE 336 80 288 80
WIRE 480 80 480 48
WIRE 480 80 336 80
WIRE -176 96 -176 0
WIRE -64 96 -176 96
WIRE 288 96 288 80
WIRE 288 96 256 96
WIRE 336 96 336 80
WIRE 480 96 480 80
WIRE 1520 96 1520 80
WIRE -176 112 -176 96
WIRE 896 176 896 32
WIRE 1152 176 1152 32
WIRE 1200 176 1152 176
WIRE 1408 176 1264 176
WIRE 1520 176 1520 160
WIRE 1520 176 1488 176
WIRE 1600 176 1520 176
WIRE 1872 176 1856 176
WIRE 1952 176 1936 176
WIRE -176 192 -176 176
WIRE -64 192 -176 192
WIRE 336 192 336 176
WIRE 336 192 256 192
WIRE 480 192 480 176
WIRE -176 208 -176 192
WIRE 896 256 896 240
WIRE 1152 272 1152 176
WIRE 1440 272 1152 272
WIRE 1600 272 1520 272
WIRE 768 288 768 272
WIRE 768 288 256 288
WIRE 1392 368 1392 48
WIRE 1440 368 1392 368
WIRE 1600 368 1520 368
WIRE 1872 368 1856 368
WIRE -160 384 -176 384
WIRE -64 384 -96 384
WIRE 800 384 800 272
WIRE 800 384 256 384
WIRE 896 384 896 336
WIRE 896 384 800 384
WIRE 800 400 800 384
WIRE 160 480 160 464
WIRE -160 496 -176 496
WIRE 32 496 32 464
WIRE 32 496 -80 496
WIRE 800 496 800 480
FLAG -176 -256 IN
FLAG 1648 -192 OUT
FLAG 560 -96 0
FLAG -176 -144 0
FLAG 96 -112 0
FLAG -176 208 0
FLAG -176 384 0
FLAG -176 496 0
FLAG 160 480 0
FLAG 480 192 0
FLAG 800 496 0
FLAG 1872 368 0
FLAG 1952 176 0
FLAG 1520 80 0
FLAG 1648 16 0
SYMBOL voltage -176 -256 R0
WINDOW 123 0 0 Left 2
WINDOW 39 0 0 Left 2
SYMATTR InstName V1
SYMATTR Value 400
SYMBOL ind2 928 -144 R0
WINDOW 0 -3 37 Right 2
WINDOW 3 -2 74 Right 2
SYMATTR InstName L1
SYMATTR Value 480µ
SYMATTR SpiceLine Rser=0.15
SYMATTR Type ind
SYMBOL ind2 1136 -32 R180
WINDOW 0 -4 72 Right 2
WINDOW 3 -3 34 Right 2
SYMATTR InstName L2
SYMATTR Value 7.5µ
SYMATTR SpiceLine Rser=0.0025 Cpar=0.5p
SYMATTR Type ind
SYMBOL res 784 384 R0
SYMATTR InstName Rsense
SYMATTR Value 20m
SYMBOL res 1632 -144 R0
SYMATTR InstName Rload
SYMATTR Value 1.44
SYMBOL cap 320 -80 M180
WINDOW 123 24 6 Left 2
WINDOW 0 24 56 Left 2
WINDOW 3 47 32 Left 2
SYMATTR Value2 Rser=10K
SYMATTR InstName C3
SYMATTR Value 47p
SYMBOL res 320 80 R0
SYMATTR InstName R4
SYMATTR Value 108K
SYMBOL res 464 -48 R0
SYMATTR InstName R5
SYMATTR Value 48k
SYMBOL res 464 80 R0
SYMATTR InstName R6
SYMATTR Value 5.25k
SYMBOL diode 656 -16 M180
WINDOW 0 24 64 Left 2
WINDOW 3 24 0 Left 2
SYMATTR InstName D4
SYMATTR Value RFN1L7S
SYMBOL ind2 544 -96 M180
WINDOW 0 43 76 Left 2
WINDOW 3 41 42 Left 2
SYMATTR InstName L3
SYMATTR Value 7.5µ
SYMATTR SpiceLine Rser=0.3
SYMATTR Type ind
SYMBOL cap -192 112 R0
SYMATTR InstName C5
SYMATTR Value 4.7µ
SYMBOL cap 1440 -112 R0
WINDOW 123 24 36 Left 2
SYMATTR Value2 N=2
SYMATTR SpiceLine Rser=20m Lser=5n
SYMATTR InstName C8
SYMATTR Value 470µ
SYMBOL cap -96 400 M270
WINDOW 39 -21 32 VBottom 2
WINDOW 0 32 32 VTop 2
WINDOW 3 0 32 VBottom 2
SYMATTR SpiceLine Rser=20K
SYMATTR InstName C9
SYMATTR Value 100n
SYMBOL res -64 480 R90
WINDOW 0 0 56 VBottom 2
WINDOW 3 32 56 VTop 2
SYMATTR InstName R9
SYMATTR Value 60k
SYMBOL cap 80 -192 R0
SYMATTR InstName C1
SYMATTR Value 4.7µ
SYMBOL LT8316 96 192 R0
SYMATTR InstName U1
SYMBOL zener 656 -224 R0
WINDOW 123 47 32 Left 2
SYMATTR Value2 N=2
SYMATTR InstName D5
SYMATTR Value 1N5378B
SYMATTR Description Diode
SYMATTR Type diode
SYMBOL cap 880 176 R0
SYMATTR InstName C4
SYMATTR Value 100p
SYMBOL res 880 240 R0
SYMATTR InstName R1
SYMATTR Value 500
SYMBOL ind 768 -240 R270
WINDOW 0 32 56 VTop 2
WINDOW 3 5 56 VBottom 2
SYMATTR InstName L4
SYMATTR Value 4.8µ
SYMBOL schottky 288 -192 M270
WINDOW 0 32 32 VTop 2
WINDOW 3 0 32 VBottom 2
SYMATTR InstName D3
SYMATTR Value RB058L150
SYMATTR Description Diode
SYMATTR Type diode
SYMBOL cap 1536 -112 R0
SYMATTR InstName C7
SYMATTR Value 10µ
SYMATTR SpiceLine Rser=5m Lser=1n
SYMBOL AutoGenerated\\IPA70R600P7S_L0 784 160 M90
SYMATTR InstName U2
SYMBOL PowerProducts\\LT8309 1728 272 R0
SYMATTR InstName U3
SYMBOL cap 1936 160 R90
WINDOW 0 0 32 VBottom 2
WINDOW 3 32 32 VTop 2
SYMATTR InstName C6
SYMATTR Value 4.7µ
SYMBOL schottky 1200 192 R270
WINDOW 0 32 32 VTop 2
WINDOW 3 0 32 VBottom 2
SYMATTR InstName D1
SYMATTR Value RB058L150
SYMATTR Description Diode
SYMATTR Type diode
SYMBOL res 1504 160 R90
WINDOW 0 0 56 VBottom 2
WINDOW 3 32 56 VTop 2
SYMATTR InstName R3
SYMATTR Value 4.7
SYMBOL cap 1504 96 R0
SYMATTR InstName C10
SYMATTR Value 1µ
SYMBOL res 1536 256 R90
WINDOW 0 0 56 VBottom 2
WINDOW 3 32 56 VTop 2
SYMATTR InstName R7
SYMATTR Value 2.3k
SYMBOL res 1536 352 R90
WINDOW 0 0 56 VBottom 2
WINDOW 3 32 56 VTop 2
SYMATTR InstName R8
SYMATTR Value 4.7
SYMBOL AutoGenerated\\BSC040N10NS5_L0 1264 32 M180
SYMATTR InstName U4
TEXT 1032 -344 Bottom 2 !K1 L1 L2 L3 1
TEXT 1032 -376 Bottom 2 ;8:1:1
TEXT 1808 552 Left 2 !.tran 0 20m 0.6m
TEXT -224 -336 Left 2 ;Primary 220-400V
TEXT 1832 -336 Left 2 ;Secondary 12V
RECTANGLE Normal 1008 576 -240 -320 3
RECTANGLE Normal 2016 576 1056 -320 3
