Version 4
SHEET 1 2184 704
WIRE -240 -304 -368 -304
WIRE -112 -304 -240 -304
WIRE 208 -304 -112 -304
WIRE 416 -304 208 -304
WIRE -368 -288 -368 -304
WIRE 416 -288 416 -304
WIRE -240 -240 -240 -304
WIRE -112 -240 -112 -304
WIRE 208 -240 208 -304
WIRE -368 -192 -368 -208
WIRE 592 -192 592 -272
WIRE 592 -192 528 -192
WIRE 608 -192 592 -192
WIRE 736 -192 736 -272
WIRE 736 -192 672 -192
WIRE 752 -192 736 -192
WIRE 416 -144 416 -208
WIRE 528 -144 528 -192
WIRE -112 -128 -112 -160
WIRE 208 -112 208 -176
WIRE -240 -80 -240 -160
WIRE -176 -80 -240 -80
WIRE 528 -48 528 -64
WIRE 752 -16 752 -192
WIRE 864 -16 752 -16
WIRE 928 -16 864 -16
WIRE 992 -16 928 -16
WIRE 1072 -16 992 -16
WIRE -112 0 -112 -32
WIRE 0 0 -112 0
WIRE 80 0 0 0
WIRE 864 0 864 -16
WIRE 928 0 928 -16
WIRE 992 0 992 -16
WIRE 1072 0 1072 -16
WIRE 0 32 0 0
WIRE 208 32 208 -48
WIRE 416 32 416 -64
WIRE 416 32 208 32
WIRE -240 64 -240 -80
WIRE 416 80 416 32
WIRE 560 80 416 80
WIRE 624 80 560 80
WIRE 624 96 624 80
WIRE 864 96 864 64
WIRE 928 96 928 64
WIRE 992 96 992 64
WIRE 1072 96 1072 80
WIRE 0 112 0 96
WIRE 80 144 80 0
WIRE 320 144 256 144
WIRE 560 160 560 80
WIRE 560 160 528 160
WIRE -240 176 -240 128
WIRE 320 176 288 176
WIRE -112 192 -112 0
WIRE -64 192 -112 192
WIRE 256 192 256 144
WIRE 256 192 224 192
WIRE 288 240 288 176
WIRE 416 240 288 240
WIRE 624 240 416 240
WIRE 752 256 752 -16
WIRE -144 272 -256 272
WIRE -64 272 -80 272
WIRE 320 272 224 272
WIRE 416 272 416 240
WIRE 416 272 320 272
WIRE -208 352 -256 352
WIRE -64 352 -128 352
WIRE 320 352 224 352
WIRE 416 368 416 352
WIRE -240 432 -256 432
WIRE -160 432 -176 432
WIRE -64 432 -80 432
WIRE 752 432 752 336
WIRE 752 432 224 432
WIRE 752 464 752 432
WIRE 80 480 80 464
WIRE 752 560 752 544
FLAG 80 480 0
FLAG 528 -48 0
FLAG 864 96 0
FLAG 928 96 0
FLAG -256 432 0
FLAG 752 560 0
FLAG -256 352 0
FLAG -256 272 0
FLAG 992 96 0
FLAG -368 -192 0
FLAG -368 -304 IN
FLAG 1072 96 0
FLAG 1072 -16 OUT
FLAG 416 368 0
FLAG -240 176 0
FLAG 0 112 0
SYMBOL ind2 400 -160 R0
WINDOW 0 -5 33 Right 2
WINDOW 3 -2 77 Right 2
SYMATTR InstName L1
SYMATTR Value 540µ
SYMATTR Type ind
SYMATTR SpiceLine Rser=24m
SYMBOL ind2 544 -48 R180
WINDOW 0 -3 80 Right 2
WINDOW 3 -3 37 Right 2
SYMATTR InstName L2
SYMATTR Value 8.44µ
SYMATTR Type ind
SYMATTR SpiceLine Rser=17m
SYMBOL res 736 448 R0
SYMATTR InstName R4
SYMATTR Value 27k
SYMBOL cap 848 0 R0
SYMATTR InstName C1
SYMATTR Value 560µ
SYMATTR SpiceLine V=50 Rser=23m
SYMBOL res -64 416 R90
WINDOW 0 0 56 VBottom 2
WINDOW 3 32 56 VTop 2
SYMATTR InstName R5
SYMATTR Value 56K
SYMBOL cap -176 416 R90
WINDOW 0 0 32 VBottom 2
WINDOW 3 32 32 VTop 2
SYMATTR InstName C3
SYMATTR Value .047µ
SYMBOL PowerProducts\\LTC3805 80 304 R0
SYMATTR InstName U1
SYMBOL res -112 336 R90
WINDOW 0 0 56 VBottom 2
WINDOW 3 32 56 VTop 2
SYMATTR InstName R8
SYMATTR Value 118K
SYMBOL cap -80 256 R90
WINDOW 0 0 32 VBottom 2
WINDOW 3 32 32 VTop 2
SYMATTR InstName C4
SYMATTR Value 0.022µ
SYMBOL cap 912 0 R0
SYMATTR InstName C5
SYMATTR Value 10µ
SYMATTR SpiceLine Rser=10m
SYMBOL cap 976 0 R0
SYMATTR InstName C6
SYMATTR Value 10µ
SYMATTR SpiceLine Rser=10m
SYMBOL voltage -368 -304 R0
WINDOW 123 0 0 Left 2
WINDOW 39 0 0 Left 2
SYMATTR InstName V2
SYMATTR Value 400
SYMBOL res 1056 -16 R0
SYMATTR InstName Rload
SYMATTR Value 1.44
SYMBOL res 432 368 R180
WINDOW 0 36 76 Left 2
WINDOW 3 36 40 Left 2
SYMATTR InstName R6
SYMATTR Value 20m
SYMBOL res 336 368 R180
WINDOW 0 36 76 Left 2
WINDOW 3 36 40 Left 2
SYMATTR InstName R1
SYMATTR Value 3.01k
SYMBOL res 736 240 R0
SYMATTR InstName R3
SYMATTR Value 380k
SYMBOL schottky 608 -176 R270
WINDOW 0 32 32 VTop 2
WINDOW 3 0 32 VBottom 2
SYMATTR InstName D1
SYMATTR Value RB228T100
SYMATTR Description Diode
SYMATTR Type diode
SYMBOL ind 400 -304 R0
SYMATTR InstName L3
SYMATTR Value 5.4µ
SYMBOL res 752 -288 R90
WINDOW 0 0 56 VBottom 2
WINDOW 3 32 56 VTop 2
SYMATTR InstName R7
SYMATTR Value 25
SYMBOL cap 656 -288 R90
WINDOW 0 0 32 VBottom 2
WINDOW 3 32 32 VTop 2
SYMATTR InstName C7
SYMATTR Value 250p
SYMBOL cap 608 96 R0
SYMATTR InstName C2
SYMATTR Value 50p
SYMBOL res 608 144 R0
SYMATTR InstName R2
SYMATTR Value 200
SYMBOL zener 192 -240 R0
SYMATTR InstName D2
SYMATTR Value 1N5385B
SYMATTR Description Diode
SYMATTR Type diode
SYMBOL diode 224 -48 R180
WINDOW 0 24 64 Left 2
WINDOW 3 24 0 Left 2
SYMATTR InstName D3
SYMATTR Value RFN1L7S
SYMBOL AutoGenerated\\IPA70R600P7S_L0 432 160 M0
SYMATTR InstName U2
SYMBOL zener -224 128 R180
WINDOW 0 24 64 Left 2
WINDOW 3 24 0 Left 2
SYMATTR InstName D4
SYMATTR Value TFZ10B
SYMATTR Description Diode
SYMATTR Type diode
SYMBOL res -128 -256 R0
SYMATTR InstName R9
SYMATTR Value 20k
SYMBOL res -256 -256 R0
SYMATTR InstName R10
SYMATTR Value 2Meg
SYMBOL cap -16 32 R0
SYMATTR InstName C8
SYMATTR Value 2.2µ
SYMBOL npn -176 -128 R0
SYMATTR InstName Q1
TEXT 488 -312 Bottom 2 !K1 L1 L2 1
TEXT -512 352 Left 2 ;Frequency Resistor
TEXT -528 272 Left 2 ;Soft Start Capacitor
TEXT -552 -320 Left 2 ;INPUT\n220v - 400V
TEXT 1152 -32 Left 2 ;OUTPUT\n12V 100W
TEXT -568 -128 Left 2 !.tran 40m steady startup
TEXT -776 536 Left 2 ;.model 1N5385B D(IS=1.54e-17 N=1 XTI=1 Rs=.1 Cjo=10p TT=10n BV=170 IBV=8m NBV=50 Vpk=170 mfg=OnSemi type=Zener)
