Version 4
SHEET 1 2184 868
WIRE -240 -304 -368 -304
WIRE -112 -304 -240 -304
WIRE 208 -304 -112 -304
WIRE 416 -304 208 -304
WIRE -368 -288 -368 -304
WIRE 416 -288 416 -304
WIRE -240 -240 -240 -304
WIRE -112 -240 -112 -304
WIRE 208 -240 208 -304
WIRE -368 -192 -368 -208
WIRE 592 -192 592 -272
WIRE 592 -192 528 -192
WIRE 608 -192 592 -192
WIRE 736 -192 736 -272
WIRE 736 -192 672 -192
WIRE 752 -192 736 -192
WIRE 416 -144 416 -208
WIRE 528 -144 528 -192
WIRE -112 -128 -112 -160
WIRE 208 -112 208 -176
WIRE -416 -80 -464 -80
WIRE -240 -80 -240 -160
WIRE -240 -80 -352 -80
WIRE -176 -80 -240 -80
WIRE 528 -48 528 -64
WIRE 752 -16 752 -192
WIRE 976 -16 752 -16
WIRE 1136 -16 976 -16
WIRE 1216 -16 1136 -16
WIRE 1280 -16 1216 -16
WIRE 1344 -16 1280 -16
WIRE 1424 -16 1344 -16
WIRE -112 0 -112 -32
WIRE -112 0 -608 0
WIRE 0 0 -112 0
WIRE 80 0 0 0
WIRE 1216 0 1216 -16
WIRE 1280 0 1280 -16
WIRE 1344 0 1344 -16
WIRE 1424 0 1424 -16
WIRE 0 32 0 0
WIRE 208 32 208 -48
WIRE 416 32 416 -64
WIRE 416 32 208 32
WIRE 416 80 416 32
WIRE 560 80 416 80
WIRE 624 80 560 80
WIRE 624 96 624 80
WIRE 1216 96 1216 64
WIRE 1280 96 1280 64
WIRE 1344 96 1344 64
WIRE 1424 96 1424 80
WIRE 0 112 0 96
WIRE 80 144 80 0
WIRE 320 144 256 144
WIRE 560 160 560 80
WIRE 560 160 528 160
WIRE 320 176 288 176
WIRE -112 192 -112 0
WIRE -64 192 -112 192
WIRE 256 192 256 144
WIRE 256 192 224 192
WIRE 288 240 288 176
WIRE 416 240 288 240
WIRE 624 240 416 240
WIRE 1136 240 1136 -16
WIRE -144 272 -256 272
WIRE -64 272 -80 272
WIRE 320 272 224 272
WIRE 416 272 416 240
WIRE 416 272 320 272
WIRE 880 336 848 336
WIRE 976 336 976 -16
WIRE 976 336 944 336
WIRE -208 352 -256 352
WIRE -64 352 -128 352
WIRE 320 352 224 352
WIRE 416 368 416 352
WIRE 976 400 976 336
WIRE -64 432 -128 432
WIRE 272 432 224 432
WIRE -128 464 -128 432
WIRE 672 464 592 464
WIRE 848 464 672 464
WIRE 1136 464 1136 320
WIRE 1136 464 1104 464
WIRE 1312 464 1136 464
WIRE 80 480 80 464
WIRE 592 496 592 464
WIRE 672 496 672 464
WIRE 768 576 752 576
WIRE 848 576 832 576
WIRE 1120 576 1104 576
WIRE 1200 576 1184 576
WIRE 1312 576 1312 464
WIRE 1312 576 1280 576
WIRE 1392 576 1312 576
WIRE 592 608 592 560
WIRE 672 608 672 576
WIRE 672 608 592 608
WIRE -608 656 -608 0
WIRE -256 656 -608 656
WIRE -128 656 -128 528
WIRE -128 656 -176 656
WIRE 416 656 -128 656
WIRE 672 656 672 608
WIRE 672 656 608 656
WIRE 976 656 976 640
WIRE 1392 704 1392 656
WIRE 416 752 368 752
WIRE 640 752 608 752
WIRE 640 784 640 752
WIRE 368 816 368 752
FLAG 80 480 0
FLAG 528 -48 0
FLAG 1216 96 0
FLAG 1280 96 0
FLAG -256 352 0
FLAG -256 272 0
FLAG 1344 96 0
FLAG -368 -192 0
FLAG -368 -304 IN
FLAG 1424 96 0
FLAG 1424 -16 OUT
FLAG 416 368 0
FLAG -464 -80 0
FLAG 0 112 0
FLAG 272 432 0
FLAG 640 784 0
FLAG 368 816 0
FLAG 976 656 0
FLAG 1392 704 0
FLAG 752 576 0
FLAG 848 336 0
SYMBOL ind2 400 -160 R0
WINDOW 0 -5 33 Right 2
WINDOW 3 -2 77 Right 2
SYMATTR InstName L1
SYMATTR Value 540µ
SYMATTR Type ind
SYMATTR SpiceLine Rser=24m
SYMBOL ind2 544 -48 R180
WINDOW 0 -3 80 Right 2
WINDOW 3 -3 37 Right 2
SYMATTR InstName L2
SYMATTR Value 8.44µ
SYMATTR Type ind
SYMATTR SpiceLine Rser=17m
SYMBOL cap 1200 0 R0
SYMATTR InstName C1
SYMATTR Value 560µ
SYMATTR SpiceLine V=50 Rser=23m
SYMBOL PowerProducts\\LTC3805 80 304 R0
SYMATTR InstName U1
SYMBOL res -112 336 R90
WINDOW 0 0 56 VBottom 2
WINDOW 3 32 56 VTop 2
SYMATTR InstName R8
SYMATTR Value 118K
SYMBOL cap -80 256 R90
WINDOW 0 0 32 VBottom 2
WINDOW 3 32 32 VTop 2
SYMATTR InstName C4
SYMATTR Value 0.022µ
SYMBOL cap 1264 0 R0
SYMATTR InstName C5
SYMATTR Value 10µ
SYMATTR SpiceLine Rser=10m
SYMBOL cap 1328 0 R0
SYMATTR InstName C6
SYMATTR Value 10µ
SYMATTR SpiceLine Rser=10m
SYMBOL voltage -368 -304 R0
WINDOW 123 0 0 Left 2
WINDOW 39 0 0 Left 2
SYMATTR InstName V2
SYMATTR Value 400
SYMBOL res 1408 -16 R0
SYMATTR InstName Rload
SYMATTR Value 1.44
SYMBOL res 432 368 R180
WINDOW 0 36 76 Left 2
WINDOW 3 36 40 Left 2
SYMATTR InstName R6
SYMATTR Value 20m
SYMBOL res 336 368 R180
WINDOW 0 36 76 Left 2
WINDOW 3 36 40 Left 2
SYMATTR InstName R1
SYMATTR Value 3.01k
SYMBOL schottky 608 -176 R270
WINDOW 0 32 32 VTop 2
WINDOW 3 0 32 VBottom 2
SYMATTR InstName D1
SYMATTR Value RB228T100
SYMATTR Description Diode
SYMATTR Type diode
SYMBOL ind 400 -304 R0
SYMATTR InstName L3
SYMATTR Value 5.4µ
SYMBOL res 752 -288 R90
WINDOW 0 0 56 VBottom 2
WINDOW 3 32 56 VTop 2
SYMATTR InstName R7
SYMATTR Value 25
SYMBOL cap 656 -288 R90
WINDOW 0 0 32 VBottom 2
WINDOW 3 32 32 VTop 2
SYMATTR InstName C7
SYMATTR Value 250p
SYMBOL cap 608 96 R0
SYMATTR InstName C2
SYMATTR Value 50p
SYMBOL res 608 144 R0
SYMATTR InstName R2
SYMATTR Value 200
SYMBOL zener 192 -240 R0
SYMATTR InstName D2
SYMATTR Value 1N5385B
SYMATTR Description Diode
SYMATTR Type diode
SYMBOL diode 224 -48 R180
WINDOW 0 24 64 Left 2
WINDOW 3 24 0 Left 2
SYMATTR InstName D3
SYMATTR Value RFN1L7S
SYMBOL AutoGenerated\\IPA70R600P7S_L0 432 160 M0
SYMATTR InstName U2
SYMBOL zener -416 -64 R270
WINDOW 0 36 32 VTop 2
WINDOW 3 -4 32 VBottom 2
SYMATTR InstName D4
SYMATTR Value TFZ10B
SYMATTR Description Diode
SYMATTR Type diode
SYMBOL res -128 -256 R0
SYMATTR InstName R9
SYMATTR Value 20k
SYMBOL res -256 -256 R0
SYMATTR InstName R10
SYMATTR Value 2Meg
SYMBOL cap -16 32 R0
SYMATTR InstName C8
SYMATTR Value 2.2µ
SYMBOL npn -176 -128 R0
SYMATTR InstName Q1
SYMBOL diode -144 464 R0
SYMATTR InstName D5
SYMATTR Value 1N4148
SYMBOL Optos\\PC817A 512 704 M0
SYMATTR InstName U3
SYMBOL res -160 640 R90
WINDOW 0 0 56 VBottom 2
WINDOW 3 32 56 VTop 2
SYMATTR InstName R3
SYMATTR Value 100k
SYMBOL res 1120 224 R0
SYMATTR InstName R4
SYMATTR Value 200k
SYMBOL res 1376 560 R0
SYMATTR InstName R5
SYMATTR Value 10.5k
SYMBOL res 656 480 R0
SYMATTR InstName R11
SYMATTR Value 2k
SYMBOL cap 832 560 R90
WINDOW 0 0 32 VBottom 2
WINDOW 3 32 32 VTop 2
SYMATTR InstName C3
SYMATTR Value .05µ
SYMBOL res 1296 560 R90
WINDOW 0 0 56 VBottom 2
WINDOW 3 32 56 VTop 2
SYMATTR InstName R12
SYMATTR Value 50k
SYMBOL PowerProducts\\LT4430 976 512 R0
WINDOW 0 17 -131 Left 2
SYMATTR InstName U4
SYMBOL cap 576 496 R0
SYMATTR InstName C10
SYMATTR Value 4.7n
SYMBOL cap 944 320 R90
WINDOW 0 0 32 VBottom 2
WINDOW 3 32 32 VTop 2
SYMATTR InstName C11
SYMATTR Value 1µ
SYMBOL cap 1184 560 R90
WINDOW 0 0 32 VBottom 2
WINDOW 3 32 32 VTop 2
SYMATTR InstName C9
SYMATTR Value 5n
TEXT 488 -312 Bottom 2 !K1 L1 L2 1
TEXT -512 352 Left 2 ;Frequency Resistor
TEXT -512 272 Left 2 ;Soft Start Capacitor
TEXT -552 -320 Left 2 ;INPUT\n220v - 400V
TEXT 1504 -32 Left 2 ;OUTPUT\n12V 100W
TEXT -568 48 Left 2 !.tran 40m steady startup
TEXT -552 -392 Left 2 ;.model 1N5385B D(IS=1.54e-17 N=1 XTI=1 Rs=.1 Cjo=10p TT=10n BV=170 IBV=8m NBV=50 Vpk=170 mfg=OnSemi type=Zener)
