Version 4
SHEET 1 2288 1168
WIRE 1120 -400 1104 -400
WIRE 1200 -400 1184 -400
WIRE 1296 -400 1280 -400
WIRE 32 -256 -128 -256
WIRE 672 -256 32 -256
WIRE 784 -256 672 -256
WIRE 944 -256 864 -256
WIRE 1104 -256 1104 -400
WIRE 1104 -256 1008 -256
WIRE 1184 -256 1104 -256
WIRE 1296 -256 1296 -400
WIRE 1296 -256 1248 -256
WIRE 1344 -256 1296 -256
WIRE 1424 -256 1344 -256
WIRE 1568 -256 1504 -256
WIRE 1680 -256 1568 -256
WIRE -128 -240 -128 -256
WIRE 944 -240 944 -256
WIRE 1008 -240 1008 -256
WIRE 1344 -240 1344 -256
WIRE 1568 -240 1568 -256
WIRE 1680 -240 1680 -256
WIRE 672 -224 672 -256
WIRE 160 -208 96 -208
WIRE 224 -208 160 -208
WIRE 336 -208 288 -208
WIRE 480 -208 336 -208
WIRE 560 -208 480 -208
WIRE 96 -192 96 -208
WIRE 560 -192 560 -208
WIRE -128 -144 -128 -160
WIRE 336 -144 336 -208
WIRE 1008 -144 1008 -160
WIRE 1344 -144 1344 -176
WIRE 1568 -144 1568 -176
WIRE 1680 -144 1680 -160
WIRE 96 -112 96 -128
WIRE 560 -96 560 -112
WIRE 32 -80 32 -256
WIRE 160 -80 160 -208
WIRE 672 -80 672 -160
WIRE 480 -32 480 -208
WIRE -64 0 -176 0
WIRE 336 0 336 -80
WIRE 336 0 256 0
WIRE 672 16 672 -16
WIRE 944 16 944 -160
WIRE 944 16 672 16
WIRE 336 80 288 80
WIRE 480 80 480 48
WIRE 480 80 336 80
WIRE -176 96 -176 0
WIRE -64 96 -176 96
WIRE 288 96 288 80
WIRE 288 96 256 96
WIRE 336 96 336 80
WIRE 480 96 480 80
WIRE -176 112 -176 96
WIRE 944 160 944 16
WIRE 1088 160 944 160
WIRE 1152 160 1088 160
WIRE 1152 176 1152 160
WIRE -176 192 -176 176
WIRE -64 192 -176 192
WIRE 336 192 336 176
WIRE 336 192 256 192
WIRE 480 192 480 176
WIRE -176 208 -176 192
WIRE 832 240 560 240
WIRE 1088 256 1088 160
WIRE 1088 256 1040 256
WIRE 1152 256 1152 240
WIRE 832 272 784 272
WIRE 560 288 560 240
WIRE 560 288 256 288
WIRE 784 352 784 272
WIRE 1152 352 1152 336
WIRE 1152 352 784 352
WIRE -160 384 -176 384
WIRE -64 384 -96 384
WIRE 784 384 784 352
WIRE 784 384 256 384
WIRE 784 400 784 384
WIRE 160 480 160 464
WIRE 784 496 784 480
WIRE 32 512 32 464
WIRE 32 608 32 592
FLAG 1568 -144 0
FLAG 1008 -144 0
FLAG 1680 -144 0
FLAG -128 -256 IN
FLAG 1680 -256 OUT
FLAG 1344 -144 0
FLAG 560 -96 0
FLAG -128 -144 0
FLAG 96 -112 0
FLAG -176 208 0
FLAG -176 384 0
FLAG 32 608 0
FLAG 160 480 0
FLAG 480 192 0
FLAG 784 496 0
SYMBOL voltage -128 -256 R0
WINDOW 123 0 0 Left 2
WINDOW 39 0 0 Left 2
SYMATTR InstName V1
SYMATTR Value 400
SYMBOL ind2 928 -256 R0
WINDOW 0 -3 37 Right 2
WINDOW 3 -2 74 Right 2
SYMATTR InstName L1
SYMATTR Value 400µ
SYMATTR SpiceLine Rser=0.5
SYMATTR Type ind
SYMBOL ind2 1024 -144 R180
WINDOW 0 -4 72 Right 2
WINDOW 3 -3 34 Right 2
SYMATTR InstName L2
SYMATTR Value 6.25µ
SYMATTR SpiceLine Rser=0.03 Cpar=0.5p
SYMATTR Type ind
SYMBOL cap 1552 -240 R0
SYMATTR SpiceLine Rser=50m
SYMATTR InstName C2
SYMATTR Value 1200µ
SYMBOL schottky 1184 -240 R270
WINDOW 0 32 32 VTop 2
WINDOW 3 0 32 VBottom 2
SYMATTR InstName D1
SYMATTR Value RB228T100
SYMATTR Description Diode
SYMATTR Type diode
SYMBOL res 768 384 R0
SYMATTR InstName Rsense
SYMATTR Value 20m
SYMBOL res 1664 -256 R0
SYMATTR InstName Rload
SYMATTR Value 1.44
SYMBOL cap 320 -80 M180
WINDOW 123 24 6 Left 2
WINDOW 0 24 56 Left 2
WINDOW 3 47 32 Left 2
SYMATTR Value2 Rser=10K
SYMATTR InstName C3
SYMATTR Value 47p
SYMBOL res 320 80 R0
SYMATTR InstName R4
SYMATTR Value 108K
SYMBOL res 464 -48 R0
SYMATTR InstName R5
SYMATTR Value 45.9k
SYMBOL res 464 80 R0
SYMATTR InstName R6
SYMATTR Value 5k
SYMBOL diode 656 -16 M180
WINDOW 0 24 64 Left 2
WINDOW 3 24 0 Left 2
SYMATTR InstName D4
SYMATTR Value RFN1L7S
SYMBOL ind2 544 -96 M180
WINDOW 0 43 76 Left 2
WINDOW 3 41 42 Left 2
SYMATTR InstName L3
SYMATTR Value 6.25µ
SYMATTR SpiceLine Rser=0.3
SYMATTR Type ind
SYMBOL cap -192 112 R0
SYMATTR InstName C5
SYMATTR Value 4.7µ
SYMBOL cap 1328 -240 R0
SYMATTR SpiceLine Rser=2m
SYMATTR InstName C8
SYMATTR Value 500µ
SYMBOL cap -96 400 M270
WINDOW 39 -21 32 VBottom 2
WINDOW 0 32 32 VTop 2
WINDOW 3 0 32 VBottom 2
SYMATTR SpiceLine Rser=20K
SYMATTR InstName C9
SYMATTR Value 100n
SYMBOL res 16 496 R0
SYMATTR InstName R9
SYMATTR Value 60k
SYMBOL cap 80 -192 R0
SYMATTR InstName C1
SYMATTR Value 4.7µ
SYMBOL LT8316 96 192 R0
SYMATTR InstName U1
SYMBOL zener 656 -224 R0
WINDOW 123 47 32 Left 2
SYMATTR Value2 N=2
SYMATTR InstName D5
SYMATTR Value 1N5378B
SYMATTR Description Diode
SYMATTR Type diode
SYMBOL cap 1136 176 R0
SYMATTR InstName C4
SYMATTR Value 100p
SYMBOL cap 1184 -416 R90
WINDOW 0 0 32 VBottom 2
WINDOW 3 32 32 VTop 2
SYMATTR InstName C6
SYMATTR Value 470p
SYMBOL res 1136 240 R0
SYMATTR InstName R1
SYMATTR Value 500
SYMBOL res 1296 -416 R90
WINDOW 0 0 56 VBottom 2
WINDOW 3 32 56 VTop 2
SYMATTR InstName R2
SYMATTR Value 50
SYMBOL ind 768 -240 R270
WINDOW 0 32 56 VTop 2
WINDOW 3 5 56 VBottom 2
SYMATTR InstName L4
SYMATTR Value 4µ
SYMBOL AutoGenerated\\IPA70R600P7S_L0 944 256 M0
SYMATTR InstName U2
SYMBOL schottky 288 -192 M270
WINDOW 0 32 32 VTop 2
WINDOW 3 0 32 VBottom 2
SYMATTR InstName D3
SYMATTR Value RB058L150
SYMATTR Description Diode
SYMATTR Type diode
SYMBOL ind 1520 -272 R90
WINDOW 0 5 56 VBottom 2
WINDOW 3 32 56 VTop 2
SYMATTR InstName L5
SYMATTR Value 1µ
TEXT 976 -256 Bottom 2 !K1 L1 L2 L3 1
TEXT 976 -296 Bottom 2 ;8:1:1
TEXT 184 592 Left 2 !.tran 40m
